        write(*,7777)
7777    format(' Note: This program writes a MODFLOW or MT3D unformatted file. Sometimes there',  &
        /,' are problems in reading files of this type due to incompatibilities between', &
        /,' different FORTRAN compilers. If the model which reads output files from this',  &
        /,' program encounters any such problems please contact the author and I will ',  &
        /,' send you an alternative copy of this program.',/)
         
