        write(*,7777)
7777    format(' Note: This program reads a MODFLOW or MT3D unformatted file. Sometimes there ',  &
        /,' are problems in reading files of this type due to incompatibilities between ', &
        /,' different FORTRAN compiliers. If there are any such problems please contact', &
        /,' johndoherty@ozemail.com.au and I will send you an alternative copy of this ', &
        /,' program.',/)
         
